@<TRIPOS>MOLECULE
****
17 17 1 0 0
SMALL
USER_CHARGES


@<TRIPOS>ATOM
      1 C           1.8387    1.3554   -0.3586 C.ar      1     ****    0.0000
      2 C           2.2898    0.1388   -0.0331 C.ar      1     ****    0.0000
      3 C           1.4056   -0.8343    0.2251 C.ar      1     ****    0.0000
      4 C           0.0686   -0.6570    0.1754 C.ar      1     ****    0.0000
      5 C          -0.3754    0.5801   -0.1556 C.ar      1     ****    0.0000
      6 C           0.5158    1.5558   -0.4144 C.ar      1     ****    0.0000
      7 O          -1.6943    0.9038   -0.2443 O.3       1     ****    0.0000
      8 O          -0.7010   -1.7613    0.4688 O.3       1     ****    0.0000
      9 C          -2.1058   -1.6949    0.4484 C.3       1     ****    0.0000
     10 H           2.5431    2.1751   -0.5761 H         1     ****    0.0000
     11 H           3.3734   -0.0576    0.0213 H         1     ****    0.0000
     12 H           1.7984   -1.8313    0.4919 H         1     ****    0.0000
     13 H           0.1481    2.5611   -0.6833 H         1     ****    0.0000
     14 H          -1.7874    1.8374   -0.4926 H         1     ****    0.0000
     15 H          -2.4934   -2.7035    0.7168 H         1     ****    0.0000
     16 H          -2.4731   -0.9796    1.2168 H         1     ****    0.0000
     17 H          -2.4696   -1.4577   -0.5754 H         1     ****    0.0000
@<TRIPOS>BOND
     1     1     2     1
     2     1     6     2
     3     1    10     1
     4     2     3     2
     5     2    11     1
     6     3     4     1
     7     3    12     1
     8     4     5     2
     9     4     8     1
    10     5     6     1
    11     5     7     1
    12     6    13     1
    13     7    14     1
    14     8     9     1
    15     9    15     1
    16     9    16     1
    17     9    17     1
