REMARK  2 active torsions:
REMARK  status: ('A' for Active; 'I' for Inactive)
REMARK    1  A    between atoms: C_4  and  O_8 
REMARK    2  A    between atoms: C_5  and  O_7 
ROOT
ATOM      1  C   *** d   1       1.839   1.355  -0.359  0.00  0.00     0.003 A 
ATOM      2  C   *** d   1       2.290   0.139  -0.033  0.00  0.00     0.003 A 
ATOM      3  C   *** d   1       1.406  -0.834   0.225  0.00  0.00     0.039 A 
ATOM      4  C   *** d   1       0.069  -0.657   0.175  0.00  0.00     0.101 A 
ATOM      5  C   *** d   1      -0.375   0.580  -0.156  0.00  0.00     0.099 A 
ATOM      6  C   *** d   1       0.516   1.556  -0.414  0.00  0.00     0.039 A 
ENDROOT
BRANCH   4   7
ATOM      7  O   *** d   1      -0.701  -1.761   0.469  0.00  0.00    -0.353 OA
ATOM      8  C   *** d   1      -2.106  -1.695   0.448  0.00  0.00     0.210 C 
ENDBRANCH   4   7
BRANCH   5   9
ATOM      9  O   *** d   1      -1.694   0.904  -0.244  0.00  0.00    -0.358 OA
ATOM     10  H   *** d   1      -1.787   1.837  -0.493  0.00  0.00     0.217 HD
ENDBRANCH   5   9
TORSDOF 2
